440plosonePLoS ONEPLoS OnePLOSPMC7094859709485970948593221043510.1371/journal.pone.0222072The nuclear receptor NR4A1 is regulated by SUMO modification to induce autophagic cell death
Zárraga-GranadosGabrielaInvestigation, Writing – review & editing Muciño-HernándezGabrielInvestigation, Writing – review & editing Sánchez-CarbenteMaría RInvestigation, Writing – review & editing Villamizar-GálvezWendyInvestigation, Writing – review & editing Peñas-RincónAnaInvestigation, Writing – review & editing ArredondoCristianInvestigation, Writing – review & editing AndrésMaría EResources, Supervision, Writing – review & editing WoodChristopherVisualization, Writing – review & editing CovarrubiasLuisResources, Supervision, Writing – review & editing Castro-ObregónSusanaConceptualization, Funding acquisition, Investigation, Project administration, Resources, Supervision, Writing – original draft, Writing – review & editing GhavamiSaeidEditor 1División de Neurociencias, Departamento de Neurodesarrollo y Fisiología, Instituto de Fisiología Celular, Universidad Nacional Autónoma de México, México City, México2Biotechnology Research Center, Universidad Autónoma del Estado de Morelos, Cuernavaca, Morelos, México3Departamento de Biología Celular y Molecular, Facultad de Ciencias Biológicas, Pontificia Universidad Católica de Chile, Santiago, Chile4Laboratorio Nacional de Microscopía Avanzada, Instituto de Biotecnología, UNAM, Cuernavaca, Mexico5Departamento de Genética del Desarrollo y Fisiología Molecular, Instituto de Biotecnología, UNAM, Cuernavaca, Mexico6University of Manitoba, CANADACompeting Interests: The authors have declared that no competing interests exist.
✉* E-mail: scastro@ifc.unam.mx
2532020153e0222072e0222072342020© 2020 Zárraga-Granados et alThis is an open access article distributed under the terms of the Creative Commons Attribution License, which permits unrestricted use, distribution, and reproduction in any medium, provided the original author and source are credited.

## Abstract
NR4A is a nuclear receptor protein family whose members act as sensors of cellular environment and regulate multiple processes such as metabolism, proliferation, migration, apoptosis, and autophagy. Since the ligand binding domains of these receptors have no cavity for ligand interaction, their function is most likely regulated by protein abundance and post-translational modifications. In particular, NR4A1 is regulated by protein abundance, phosphorylation, and subcellular distribution (nuclear-cytoplasmic translocation), and acts both as a transcription factor and as a regulator of other interacting proteins. SUMOylation is a post-translational modification that can affect protein stability, transcriptional activity, alter protein-protein interactions and modify intracellular localization of target proteins. In the present study we evaluated the role of SUMOylation as a posttranslational modification that can regulate the activity of NR4A1 to induce autophagy-dependent cell death. We focused on a model potentially relevant for neuronal cell death and demonstrated that NR4A1 needs to be SUMOylated to induce autophagic cell death. We observed that a triple mutant in SUMOylation sites has reduced SUMOylation, increased transcriptional activity, altered intracellular distribution, and more importantly, its ability to induce autophagic cell death is impaired.

statusreleaseddisplay-pdfyesis-olfnois-manuscriptnois-preprintnois-journal-matternois-scannednois-retractednoReceived 2019 Aug 19; Accepted 2020 Mar 8; Collection date 2020.

## Introduction
Nuclear receptors are a superfamily of transcription factors involved in a vast number of biological processes. They share three common structural domains: a N-terminal transactivation domain (TAD), a central double zinc finger DNA binding domain (DBD) and a C-terminal ligand binding domain (LBD). Among the known human nuclear receptors, the ones belonging to the NR4A family act as sensors of the cellular environment and contribute to cell fate decisions, such as cell proliferation, differentiation, migration, cell death, etc. Physiologically, NR4A members influence the adaptive and innate immune system, angiogenesis, metabolism and brain function. The NR4A family is comprised of three members that bind the same DNA elements [ ]: NR4A1 (Nur77, TR3, NGF1B, etc.), NR4A2 (Nurr1, NOT, TINUR, etc.) and NR4A3 (Nor1, MINOR, etc.). NR4A family members are considered orphan nuclear receptors since endogenous ligands are unknown and, although several natural and artificial compounds enhance their transcriptional activity, they are able to activate transcription by solely up-regulating the expression of their genes [ ]. Therefore, rather than regulation by ligand interactions, their endogenous function is most likely regulated by NR4A family members protein abundance and post-translational modifications (PTM). All NR4A family members are mainly modified by phosphorylation by over 20 different kinases described so far, and at least NR4A1 is also acetylated by CBP/p300 and deacetylated by HDAC1. Specific PTM affect their interaction with either DNA or other proteins, as well as their intracellular localization [ ].
A wide variety of stimuli induce the expression of Nr4a genes, both during development and in adulthood. For example, they are induced in response to caloric restriction [ ], exercise [ ] or during learning and long term memory [ , ]. NR4A family proteins regulate the expression of several genes, some of which are involved in lipid and glucose metabolism, insulin sensitivity and energy balance. Another important function of NR4A family proteins is to prevent DNA damage and to promote DNA repair [ , ]. NR4A1 also has non-genomic activities both in the nucleus and in the cytoplasm, altering the function of interacting proteins. For all the functions described above, understanding the molecular regulation of NR4A activity is an active area of research.
Autophagy is mainly a catabolic process that allows cells to recycle macromolecules when needed or to eliminate damaged proteins and organelles, among other components, contributing to cell health [ ]; occasionally, however, it also contributes to an alternative secretion mechanism [ ] or even to cell death [ ]. When inhibition of autophagy prevents cell death, it is referred to as autophagic cell death, although the actual cause of cell death still needs to be understood. We showed in previous work that the neuropeptide Substance P (SP) and its receptor, neurokinin 1 receptor (NK1R) induce an alternative non-apoptotic form of cell death in striatal, hippocampal and cortical neurons, as well as in NK1R-transfected human embryonic kidney cells. It is important to highlight that these types of cells are apoptosis-competent cells. This form of cell death requires gene expression, indicating that SP/NK1R-mediated cell death is programmatic; however, it is non-apoptotic, as there is a lack of membrane blebbing, nuclear fragmentation, apoptotic body formation or phosphatidylserine flipping; it is caspase independent and is not prevented by Bcl-xL expression. It is not necrosis, as the plasma membrane remains intact [ ]. SP/NK1R-mediated cell death is signaled by a phosphorylation cascade that involves RAF-1, MEK2 and ERK2. ERK2 phosphorylates the nuclear receptor NR4A1, whose activity is necessary for SP/NK1R-mediated non-apoptotic cell death [ ]. Inhibition of autophagy either pharmacologically or by RNAi to reduce Pi3k-III (Vps34), Atg7 or Becn1 gene expression prevents SP/NK1R-mediated non-apoptotic cell death. NR4A1 also plays an essential role in autophagic cell death induced by other stimuli, as its inactivation by either over-expression of dominant negative mutants or by RNAi prevents cell death [ ]. In the case of melanoma cells treated with THPN, a chemical compound targeting NR4A1, cell death occurs after induction of excessive mitophagy, due to NR4A1 translocation to the inner membrane of the mitochondria, causing dissipation of mitochondrial membrane potential by the permeability pore complex ANT1/VDAC [ ]. Furthermore, Dendrogenin A, a mammalian cholesterol metabolite ligand of liver-X-receptors (LCRs) induces Nr4a1 expression in association with excessive autophagic cell death both in vitro and in vivo [ , ], displaying anticancer and chemopreventive properties in mice[ ]. Interestingly, NR4A1 interaction with anti-apoptotic BCL2 family members outside the BH3 domain induces autophagic cell death [ ], which seems to be mediated by releasing BECN1 in a model of cigarette smoke-induced autophagic cell death[ ]. Taken together, these findings indicate that NR4A1 could function as a broad inducer of autophagic cell death.
In the present work we aimed to study whether specific PTM confer upon NR4A1 the ability to induce autophagic cell death, by using our model of NR4A1-mediated autophagic cell death induced by SP/NK1R described above. SP is a neuropeptide involved in several physiological functions and pathological situations, including emotional behavior, pain perception, addiction, inflammation, neurodegeneration, etc. Accordingly, NK1R is expressed all around the body, including endothelial cells and in both central and peripheral nervous system, and SP is present in all body fluids such as cerebrospinal fluid, blood, etc. [ ]. We focused in this model for its relevance in neuronal cell death, as interfering with SP signaling reduces infarct volume and neuronal cell death in in vivo models of ischaemia [ ] and of excitotoxin-induced seizures [ ], both situations in which NR4A1 expression is also induced (i.e. ischaemia [ ] and kainic acid-triggered seizures [ ]).
During SP/NK1R-induced autophagic cell death, NR4A1 is regulated by both protein abundance and phosphorylation [ ], and undergoes nuclear-cytoplasmic translocation [ ], potentially having both genomic and non-genomic functions. A previous report showed that NR4A1 undergoes sequential SUMOylation and ubiquitination, which together control the degradation of NR4A1 after induced stress [ ]. SUMO modification can affect protein stability, transcriptional activity, protein-protein interactions and intracellular localization of target proteins [ ]. In addition, SUMO modification affects numerous cellular processes overlapping with those described for NR4A1 function, both in development and adulthood. Even though the SUMO machinery is mainly located in the nucleus, numerous cytoplasmic proteins have also been identified to have their function modulated by SUMO modification [ , ]. Therefore, we hypothesize that NR4A1 might be SUMOylated in response to SP/NK1R signaling, conferring upon it the ability to induce autophagic cell death.
SUMOs are small ubiquitin-related peptides, approximately 11 KDa size, that become conjugated to a variety of proteins and are deconjugated by SUMO-specific proteases. Despite the name, SUMO shares less than 20% homology with ubiquitin. The similarity is more significant in the biochemical mechanism of ligation, as it involves three conjugating enzymes: E1, a dimer known as SAE1/SAE2; E2, a protein named UBC9; and E3, which are a group of proteins conferring target specificity. There are four genes in mammals coding for four SUMO peptides (SUMO1-4). SUMO2 and 3 share 95% homology and there are no antibodies that distinguish between them, so they are referred to as SUMO2/3; they are only 50% identical to SUMO1 (reviewed in [ ]).
NR4A1 is an early response gene, whose expression is induced in minutes, and the protein is degraded after a couple of hours. However, we observed that NR4A1 expression is sustained during SP/NK1R–induced autophagic cell death, suggesting that in this scenario NR4A1 protein would scape degradation. In this work, we confirmed that NR4A1 is indeed SUMOylated during SP/NK1R–induced autophagic cell death, and mutants with reduced SUMOylation showed increased transcriptional activity and altered intracellular distribution. More importantly, the ability to promote SP/NK1R–induced autophagic cell death was impaired when SUMOylation of NR4A1 was reduced.

## Experimental methods

## Cell culture, plasmid transfection and cell death evaluation
Human embryonic kidney 293 (HEK293) cells were grown in high glucose DMEM (Invitrogen, Carlsbad, CA) supplemented with 10% fetal bovine serum (Sigma, St. Louis, MO) and penicillin/streptomycin 100 U/ml (Invitrogen, Carlsbad, CA). The cultures were incubated at 37°C in 95% air and 5% carbon dioxide with 95% humidity. Transient transfection was performed with Polyethylenimine (PEI, 25 kDa Polysciences Inc. # 23966–2) mixed with DNA in a 3:1 ratio. Briefly, 2x105 cells/well were seeded into 35 mm wells 16–20 hr prior to transfection. Transfection solution: 1 μg of DNA was diluted into 75 μl OPTIMEM; 3 μg PEI was diluted into 75 μl OPTIMEM; then mixed and incubated for 15 minutes at room temperature. 0.5 ml of medium was removed from each well and the mixture was added dropwise to the cells. After 4 hr at 37°C the medium was refresh supplemented without antibiotics. After 24 hr, 100 nM SP (SIGMA) was added when necessary. Expression of each construct in the transient transfections was determined by Western blot or immunofluorescence. Transient transfection efficiencies were in all cases >80%. The plasmid pcDNA3.1-NK1R has previously been described [ , ]. Dr. Jacques Drouin (Laboratoire de Génétique Moléculaire, Institut de Recherches Cliniques de Montréal, Canada) kindly provided POMC-Luc, NBRE-POMC-Luc and NuRE-POMC-Luc reporter plasmids. Site-directed mutagenesis was performed using QuickChange Kit (Invitrogene). The alignment and prediction of consensus motifs was performed using Clustal W2 software, using the sequence UniProtKB—P22736 (NR4A1_HUMAN). All position information refers to this entry. Cell death was determined by Trypan blue exclusion or LDH release. Autophagy inhibitor Spautin-1 (Cellagen Technology, San Diego, CA, USA) was used at 10 μM. The software PRISM 6.0 (GraphPad Software, La Jolla, CA, USA) was used for the one-way ANOVA statistical analysis, and the p values between indicated treatments in figures were calculated by Bonferroni’s Multiple Comparison Test.

## Immunoelectron microscopy
Cell pellets were fixed in 4% paraformaldehyde/2.5% glutaraldehyde for 1 hr at room temperature; it was washed two times (10 min each) in PBS and stained with 1% osmium tetraoxide for 1 hr at 4°C, followed by two washes with PBS and water. Total dehydration was done in ethanol (graded 50–100%) and propylene oxide. Pellets were embedded in epoxy resin and cut into 70 nm sections. For immunoelectron microscopy, cell pellets were fixed with 4% paraformaldehyde/0.1% glutaraldehyde for 30 min at 4°C. After ethanol dehydration (graded 70–100%) pellets without osmication were embedded in LR White. Ultra-thin sections were mounted on nickel grids, blocked with 5% fat free Milk in TBST for 15 min and probed with a 1:10 dilution of anti LC3 (Cell Signaling Technology Inc., Danvers, MA, USA) at 4°C over night. A 1:10 dilution of colloidal gold-conjugated secondary antibody (GAR Auroprobe, Amersham) was incubated for 2 hr at room temperature. Then sections were washed with TBST and PBS, post-fixed with 1% glutaraldehyde in PBS, thoroughly washed and stained with 2% aqueous uranyl acetate. A control without first antibody was included. Electron microscopy was performed at 80 kV on a Zeiss EM900 Transmission Electron Microscope. Images were recorded with a Gatan Dual Vision CCD 300W camera (Gatan, Pleasanton, CA).

## Western blot, immunoprecipitation and immunofluorescence analysis
For Western blotting, the transfected human embryonic kidney 293 cells were washed with cold PBS and homogenized in lysis buffer (150 μM NaCl, 1% Triton X-100, 50 μM Tris HCl pH 8.0, proteinases inhibitor cocktail cOmplete ULTRA and phosphatases inhibitor cocktail PhosSTOP (Roche Diagnostic Corporation, Indianapolis, IN, USA)). Cytoplasmic extracts were collected after 10 min. centrifugation at 14,000 rcf. Protein was quantified by Bradford assay and electrophoresis of equal amounts of total protein was performed on SDS-polyacrylamide gels. Separated proteins were transferred to polyvinylidene fluoride membranes at 4o C. Membranes were probed with the following antibodies: SUMO1 (1:1000 #4930), SUMO2/3 (1:1000 #4971), phospho-Threonine (1:500 #9381), Myc (1:350 #2276) and NR4A1 (1:2000 #3960) from Cell Signaling Technology Inc., Danvers, MA, USA; GAPDH (1:8000, Research Diagnostics, Flanders, NJ, USA); TUBULIN (1:7000, Abcam, Cambridge, MA, USA); FLAG (1:1000, #F3165 SIGMA, San Luis, Missouri, USA); UBC9 (1:250, #610748 BD Biosciences, San Jose, CA); UBIQUITIN (1:1000, #U5379 SIGMA, San Luis, Missouri, USA); HA (#H6908 SIGMA, San Luis, Missouri, USA). The membranes were incubated in the appropriate horseradish peroxidase-coupled secondary antibody for 1 hr followed by enhanced chemiluminescence detection (Amersham, Arlington Heights, IL). Alternatively, appropriate infrared dye-coupled secondary antibodies (1:10,000 dilution of anti-rabbit IRDye800 and anti-mouse IRDye700, Rockland, Gilbertsville, PA, USA) were used, the blots were scanned in an Odyssey Imager and proteins were quantified using Image Studio software (LI-COR Biosciences, Lincoln, Nebraska, USA). The immunoprecipitations were carried out using super-paramagnetic Microbeads conjugated to protein A or protein G, following the manufacturer´s instructions (MACS; Milteyi Biotec, Auburn, CA). For immunofluorescence, cells were seeded into Lab-Tek CC2 treated slide chambers (Nalgene Nunc International, Napeville, IL, USA); after washing with PBS cells were fixed with 4% paraformaldehyde/PBS for 10 min; then washed with PBS and permeabilized with 0.2% Triton X-100/PBS for 10 min. Afterwards cells were washed with PBS, pre-incubated 30 min with 4% BSA/PBS and 4% goat serum and washed again with PBS. Anti-NR4A1 (M-210 Santa Cruz Biotechnology, Santa Cruz, CA, USA) was diluted 1:200 in 2%BSA/PBS and incubated over night at 4°C. After washing with PBS cells were incubated with anti-rabbit coupled to Alexafluor 594 (Invitrogen, Carlsbad, CA) diluted 1:1000 in 2%BSA/PBS for 30 min at room temperature. Then, cells were treated with 10mg/ml RNAse for 30 min at 37°C and washed again with PBS. Cells were counterstained with 10 ng/ml DAPI and mounted. Images were acquired using a NIKON ECLIPSE Ti-U microscope or an Axiovert 200M (Carl Zeiss) confocal microscope. Images were processed using NIS Elements, Basic Research (NIKON INSTRUMENTS Inc ®, NY, USA) software, Version 3.13. The nuclear area stained with DAPI was selected, when the green signal (NR4A1) was found outside of the nuclear area the cell was counted as nuclear/cytoplasmic regardless of the intensity of the fluorescence. Otherwise it was counted as having only NR4A1 nuclear localization.

## RNAi
Four regions were targeted for 3’UTR hNR4A1 mRNA (GenBank NM_002135) starting at positions: 2383 5’gcgccgugcuguaaauaaguu3’; 2401 5’ gcccagugcugcuguaaauuu3’; 2529 5’ccacauguacauaaacuguuu3’; 2535 5’guacauaaacugucacucuuu3’. The corresponding siRNAs were simultaneously transfected. These siRNAs were purchased as SMARTpool from Dharmacon (Lafayette, CO, USA). Control siRNA targeting a protein of Rotavirus was a kind gift from Dr. Susana López (Instituto de Biotecnología, UNAM).
siRNA transfection: Human embryonic kidney 293 cells (105 cells per well in 12-well plates) were grown in high-glucose DMEM supplemented with 10% fetal bovine serum (Sigma, St. Louis, MO), with no antibiotics for 16 hr. The siRNA specific for each target gene was transfected with Lipofectamine 2000 reagent (Invitrogen, Carsband, CA, USA) according to the manufacturer’s instructions, using 3 μg siRNA: 6 μl Lipofectamine 2000 ratio. After 4 hr of incubation, plasmids were transfected.

## Transcription assays
Human embryonic kidney 293 cells were seeded in 24-well plates (1x105 cells/well). Transient transfections were performed with 2.1 μg PEI plus 700 ng DNA [225 ng NK1R; 225 ng reporter plasmid (POMC minimal promoter-Luciferase that lacks responsive elements, NBRE-Luciferase or NurRe-Luciferase); 225 ng NR4A1 (or mutants) and 25 ng of a plasmid encoding Renilla luciferase to normalize transfections]. Twenty-four hours after transfection, the cells were incubated or not with 100 nM SP for 3 h. Luciferase and Renilla activities were determined using the Dual-Luciferase Reporter Assay (Promega #E1980), according to manufacturer’s instructions and a FLUOstar OMEGA luminometer (BMG LABTECH).

## Results

## NR4A1 is SUMOylated during SP/NK1R-induced autophagic cell death upon previous phosphorylation
SUMO peptides are conjugated to a Lys residue, frequently within a consensus motif ΨKXE, where Ψ represents any hydrophobic residue and X any amino acid[ ]. It has been shown that NR4A2 is SUMOylated in two motifs conserved among the family members that lead to SUMO ligation to lysines K91 [ ] or K558 [ ], depending on the cell context. In order to find additional potential SUMOylation sites also conserved in the three members of the family, we aligned NR4A protein sequences and searched for the SUMO consensus motif ΨKXE. We identified K102 and K577 within a SUMO motif, which are indeed SUMOylated [ ], and observed that K558 is conserved in NR4A1 and NR4A2, and hence it is also a potential site for SUMOylation in NR4A1 (positions numbers refer to the human canonic sequence UniProtKB P22736) ( ). We confirmed that during SP/NK1R-induced cell death autophagy is induced, as we observed autophagosomes by ultrastructure analysis. Endogenous LC3 was localized by immunoelectron microscopy, an example of LC3 decorated vesicle, indicative of autophagosomes, is shown in (observe black dots marked by arrows). As reported before[ ], SP/NK1R-induced cell death was prevented by autophagy inhibition, as incubation with Spautin 1 (a compound that promotes BECN1 and VPS34 degradation) [ ] reduced cell death, confirming autophagic cell death ( ).
 To analyze NR4A1 SUMOylation during SP/NK1R-induced autophagic cell death, we immunoprecipitated NR4A1 at different time points after SP exposure and looked for SUMO1 or SUMO2/3 conjugation by Western blot. Starting at 3 hr after SP induction, a fraction of NR4A1 was SUMOylated by SUMO1 and the modification lasted up to 12 hr, a time point at which SUMO2/3 ligation was also observed ( ). We verified that SUMO peptide conjugation of NR4A1 occurs during SP/NK1R-induced autophagic cell death by over-expressing Myc-tagged SUMO1 ( ) or HA-tagged SUMO2 ( ). To study the role of SUMOylated NR4A1 we substituted the three lysine residues expected to be modified by SUMO (K102, K558 and K577) for arginine. First, we evaluated whether the triple NR4A1_K102,558,577R mutant (named TriMut) had reduced SUMOylation in comparison to the level determined in NR4A1 wild type. We immunoprecipitated FLAG-NR4A1 wild type or FLAG-NR4A1_TriMut and looked for the presence of SUMO2 by Western blot. Indeed, NR4A1_TriMut showed reduced SUMOylation ( ), although additional Lys residues seem to be also modified by SUMO, as a weak signal was still detected.
There are several examples of crosstalk between phosphorylation and SUMOylation, having phosphorylation both positive and negative regulation over SUMO modification [ ]. During SP/NK1R-induced autophagic cell death NR4A1 is phosphorylated by ERK2, which is necessary for autophagic cell death induction, as the inhibition of MEK2 and ERK2 (but not the inhibition of MEK1 or ERK1) prevents NR4A1 phosphorylation and SP/NK1R-induced autophagic cell death [ ]. Accordingly, NR4A1 is phosphorylated in vitro by ERK2 but not by ERK1 in threonine 143 [ ]. Therefore, we mutated T143 to alanine, expecting to abolish its phosphorylation. Indeed, T143 is phosphorylated during SP/NK1R-induced autophagic cell death, since mutant NR4A1_T143A had reduced phosphorylation level as compared to NR4A1 wild type ( ). Nevertheless, a weak signal was still observed, indicative of an additional phosphorylated threonine. We found two additional ERK consensus motifs in the NR4A1 sequence ( ), although additional phosphorylation sites could be targeted by other kinases.
To analyze whether SUMO conjugation influences phosphorylation, we studied the level of phosphorylation when SUMOylation is reduced. As shown in , the level of phosphorylation on threonine residues was not affected in NR4A1_TriMut. This result indicates that phosphorylation is not affected by SUMOylation in this case. On the other hand, SUMOylation resulted dependent on previous phosphorylation in T143, as NR4A1_T143A was barely SUMOylated ( ). Therefore, NR4A1 SUMOylation, subsequent to phosphorylation, could alter NR4A1 stability and/or intracellular distribution and, consequently, the ability to induce autophagic cell death.
In previous work we observed that Nr4a1 expression is induced by SP signaling [ ], but NR4A1 protein abundance cannot be explained by transcriptional regulation alone. We noticed that NR4A1 produced by expression of its cDNA (lacking both 5’ and 3’ UTR) from a viral promoter (CMV) that lacks endogenous regulatory regions, also accumulates in response to SP/NK1R (for example, look at , Input). We rationalized then that NR4A1 stability should be post-translationally regulated. MAPK signaling activated by SP/NK1R does not affect NR4A1 abundance, as it still accumulates when ERK2 signaling is inhibited [ ]. SUMO modification commonly enhances protein stability by binding to lysine residues that otherwise would be ubiquitinated, targeting the protein for proteasome degradation; nevertheless, it has also been observed that some E3 ubiquitin ligases, such as RNF4, which have both SIM (SUMO interacting motif) and RING domains, attach ubiquitin to SUMO-modified proteins [ ], and this mechanism has been described to occur to NR4A1[ ]. Therefore, we asked whether NR4A1 SUMOylation regulated NR4A1 stability during SP/NK1R-induced autophagic cell death. First, we determined the endogenous NR4A1 half-life. NR4A1 reached a maximum level of expression 3 hr after SP exposure and by 9 hr it was still detected but clearly reduced ( ). We then inhibited new protein synthesis (with cycloheximide) after 3 hr of induction with SP (to start with the highest amount of NR4A1), and observed that NR4A1 was degraded very rapidly, as 3 hr after cycloheximide addition it was no longer detected ( ).
To compare the half-life of wild type NR4A1 with NR4A1_TriMut with reduced SUMOylation, we tagged it with FLAG, and compared FLAG-NR4A1 wild-type half-life with FLAG-NR4A1_TriMut (which allowed to distinguish NR4A1_TriMut from endogenously induced NR4A1). Since these constructs are expressed from a strong constitutive promoter (CMV), FLAG-NR4A1 started in these experiments with a higher amount of protein than the endogenously-induced NR4A1, therefore its expression could be observed for a longer period of time. We inhibited new protein synthesis 24 hr after transfection. Notably, the stability imposed by SP signaling still occurred in FLAG-tagged NR4A1 ( , upper panel). Under basal expression SUMOylation seemed to indeed contribute to NR4A1 stability, as the half-life of TriMut (which was SUMOylated to a lesser degree) was clearly reduced compared to wild type. Surprisingly, however, TriMut abundance still increased in response to SP ( , bottom panel) reducing its degradation rate. We do not know at this point which mechanism mediates the increase in NR4A1 stability in response to SP signaling but, possibly, the remaining SUMOylation sites observed in TriMut ( ) could be involved.

## SUMOylation and phosphorylation alter NR4A1 transcriptional activity and intracellular distribution
SUMO modification of transcription factors usually inhibits their transcriptional activity, either by recruiting co-repressors to promoter regions or by sequestering the SUMOylated form in nuclear bodies [ ]. NR4A1 transcriptional activity could also be negatively regulated by SUMOylation, since NR4A1 interacts with HDAC1, potentially recruiting co-repressor complexes [ ], and with PML, being potentially recruited into nuclear bodies [ ]. In previous studies we found that NR4A1 is transcriptionally active during SP/NK1R-induced autophagic cell death [ ]. Therefore we analyzed whether the transcriptional activity of NR4A1 is increased in the triple mutant in which predicted Lys targets of SUMOylation were replaced by arginine. NR4A receptors bind as monomers to the DNA element NBRE or as homo- or heterodimers to the DNA element NuRE. The experiments shown were performed with NuRE. First, we verified that SUMO NR4A1 mutant maintains basal transcriptional activity, and then we compared its transcriptional activity with that of NR4A1 WT in response to SP. As can be seen in , NR4A1_TriMut showed enhanced transcriptional activity in response to SP signaling. Therefore, SUMOylation appears to be a relevant negative regulator of NR4A1 transcriptional activity.